#======================================================================

# CRYSTAL DATA

#----------------------------------------------------------------------

data_VESTA_phase_1


_pd_phase_name                         'AutoCreatByScript: O Cl Fe            '
_cell_length_a                         3.85365
_cell_length_b                         7.91394
_cell_length_c                         3.27776
_cell_angle_alpha                      89.99329
_cell_angle_beta                       89.99953
_cell_angle_gamma                      89.59707
_symmetry_space_group_name_H-M         'P 1'
_symmetry_Int_Tables_number            1

loop_
_symmetry_equiv_pos_as_xyz
   'x, y, z'

loop_
   _atom_site_label
   _atom_site_occupancy
   _atom_site_fract_x
   _atom_site_fract_y
   _atom_site_fract_z
   _atom_site_adp_type
   _atom_site_B_iso_or_equiv
   _atom_site_type_symbol
   O1       1.0    0.26312      0.95459      0.24919     Biso  1.000  O
   O2       1.0    0.76078      0.05132      0.74863     Biso  1.000  O
   Cl1      1.0    0.25685      0.33315      0.24900     Biso  1.000  Cl
   Cl2      1.0    0.76726      0.67265      0.74857     Biso  1.000  Cl
   Fe1      1.0    0.76518      0.89013      0.24912     Biso  1.000  Fe
   Fe2      1.0    0.25863      0.11572      0.74844     Biso  1.000  Fe
